/*--------------------------------*- C++ -*----------------------------------*\
| =========                 |                                                 |
| \\      /  F ield         | OpenFOAM: The Open Source CFD Toolbox           |
|  \\    /   O peration     | Version:  1.6                                   |
|   \\  /    A nd           | Web:      http://www.OpenFOAM.org               |
|    \\/     M anipulation  |                                                 |
\*---------------------------------------------------------------------------*/
FoamFile
{
    version     2.0;
    format      ascii;
    class       dictionary;
    object      blockMeshDict;
}
// * * * * * * * * * * * * * * * * * * * * * * * * * * * * * * * * * * * * * //

convertToMeters 1e-6;

vertices        
(
	(-6 -6 -1)  //0
  (-6 186 -1) //1
	(-6 186 4)  //2
	(-6 -6 4)   //3
	(42 -6 -1)  //4
	(42 186 -1) //5 
	(42 186 4)  //6
	(42 -6 4)   //7 
	(-6 -6 34)  //8
	(-6 186 34)  //9
	(42 -6 34)   //10
	(42 186 34)  //11       
);

blocks          
(
  hex (0 4 5 1 3  7  6 2) (16 64 12) simpleGrading (1 1 1)
  hex (3 7 6 2 8 10 11 9) (16 64 10) simpleGrading (1 1 4)
);

edges           
(
);

patches         
(
  patch minX
  (
    (0 3 2 1)
    (3 8 9 2)
  )
  symmetryPlane maxX
  (
    (7 4 5 6)
    (10 7 6 11)
  )
  wall minY
  (
    (0 4 7 3)
    (7 10 8 3)
  )
  wall maxY 
  (
    (1 2 6 5)
    (2 9 11 6)
  )
  wall minZ
  (
    (0 1 5 4)
  )
  wall maxZ
  (
    (9 8 10 11)
  )
);

mergePatchPairs 
(
);

// ************************************************************************* //
